[General]
network = drone.swarm.DroneSwarmNetwork
sim-time-limit = 300s

include ../src/omnetpp.ini
